Circuit: * C:\users\jakub\Documents\SBR\BatteryMonitorTestv2.asc


Date: Tue Mar 28 11:58:59 2023
Total elapsed time: 0.079 seconds.

tnom = 27
temp = 27
method = trap
totiter = 33
traniter = 0
tranpoints = 0
accept = 0
rejected = 0
matrix size = 3
fillins = 0
solver = Normal
Matrix Compiler1: 104 bytes object code size
Matrix Compiler2: 189 bytes object code size
